/gpfswork/rech/cli/rcli002/WORCA025.L75-GJM189/NEMO/LIM_SRC_2/*/*/*.[Ffh]90