/gpfswork/rech/cli/rcli002/WORCA025.L75-GJM189/NEMO/OPA_SRC/OBS/find_obs_proc.h90