/gpfswork/rech/cli/rcli002/WORCA025.L75-GJM189/NEMO/OPA_SRC/OBC/obc_vectopt_loop_substitute.h90