/gpfswork/rech/cli/rcli002/WORCA025.L75-GJM189/NEMO/OPA_SRC/par_NATL12.h90