/gpfswork/rech/cli/rcli002/WORCA025.L75-GJM189/NEMO/OPA_SRC/ZDF/zdfddm_substitute.h90